*Heading
** Job name: LimitLoad Model name: Model-1
** Generated by: Abaqus/CAE 2025
*Preprint, echo=NO, model=NO, history=NO, contact=NO
**
** PARTS
**
*Part, name="Landing gear frame"
*Node
      1,   41.4547081,           0.,           0.
      2,   41.4547081,  -6.22863865,           0.
      3,   41.4547081,  -6.22863865,          10.
      4,   41.4547081,           0.,          10.
      5,          99.,   -33.803421,           0.
      6,   94.2375031,  -37.9626503,           0.
      7,   94.2375031,  -37.9626503,          10.
      8,          99.,   -33.803421,          10.
      9,  -41.4547081,  -6.22863865,          10.
     10,  -41.4547081,           0.,          10.
     11,  -41.4547081,           0.,           0.
     12,  -41.4547081,  -6.22863865,           0.
     13,  -94.2375031,  -37.9626503,          10.
     14,         -99.,   -33.803421,          10.
     15,         -99.,   -33.803421,           0.
     16,  -94.2375031,  -37.9626503,           0.
     17,         -99.,         -73.,           0.
     18,         -99.,         -73.,          10.
     19,         -99.,  -67.8069458,    2.6187501
     20,  -94.2375031,         -73.,           0.
** ... 23752 like lines cut
*Element, type=C3D8R
   1,   214,  2685, 10243,  1551,     1,    33,  1461,    60
   2,  2685,  2686, 10244, 10243,    33,    34,  1462,  1461
   3,  2686,  2687, 10245, 10244,    34,    35,  1463,  1462
   4,  2687,  2688, 10246, 10245,    35,    36,  1464,  1463
   5,  2688,  2689, 10247, 10246,    36,    37,  1465,  1464
   6,  2689,   278,  2118, 10247,    37,     2,    38,  1465
   7,  1551, 10243, 10248,  1552,    60,  1461,  1466,    59
   8, 10243, 10244, 10249, 10248,  1461,  1462,  1467,  1466
   9, 10244, 10245, 10250, 10249,  1462,  1463,  1468,  1467
  10, 10245, 10246, 10251, 10250,  1463,  1464,  1469,  1468
  11, 10246, 10247, 10252, 10251,  1464,  1465,  1470,  1469
  12, 10247,  2118,  2119, 10252,  1465,    38,    39,  1470
  13,  1552, 10248, 10253,  1553,    59,  1466,  1471,    58
  14, 10248, 10249, 10254, 10253,  1466,  1467,  1472,  1471
  15, 10249, 10250, 10255, 10254,  1467,  1468,  1473,  1472
  16, 10250, 10251, 10256, 10255,  1468,  1469,  1474,  1473
  17, 10251, 10252, 10257, 10256,  1469,  1470,  1475,  1474
  18, 10252,  2119,  2120, 10257,  1470,    39,    40,  1475
  19,  1553, 10253, 10258,  1554,    58,  1471,  1476,    57
  20, 10253, 10254, 10259, 10258,  1471,  1472,  1477,  1476
** ... 18412 like lines cut
*Nset, nset=Set-1, generate
     1,  23772,      1
*Elset, elset=Set-1, generate
     1,  18432,      1
** Section: Aluminum
*Solid Section, elset=Set-1, material=Aluminum
,
*End Part
**  
**
** ASSEMBLY
**
*Assembly, name=Assembly
**  
*Instance, name="Landing gear frame-1", part="Landing gear frame"
*End Instance
**  
*Nset, nset=Set-1, instance="Landing gear frame-1"
    1,    4,   10,   11,   29,   30,   52,   53,   54,   55,   56,   57,   58,   59,   60,  346
  347,  348,  349,  350,  351,  352,  353,  354, 1063, 1064, 1065, 1066, 1067, 1068, 1069, 1070
 1071, 1072, 1073, 1074, 1075, 1076, 1077, 1078, 1079, 1080, 1081, 1082, 1083, 1084, 1085, 1086
 1087, 1088, 1089, 1090, 1091, 1092, 1093, 1094, 1095, 1096, 1097, 1098, 1099, 1100, 1101, 1102
 1103, 1104, 1105, 1106, 1107, 1108, 1109, 1110, 1111, 1112, 1113, 1114, 1115, 1116, 1117, 1118
 1119, 1120, 1121, 1122, 1123, 1124, 1125, 1126, 1127, 1128, 1129, 1130, 1131, 1132, 1133, 1134
 1135, 1136, 1137, 1138, 1139, 1140, 1141, 1142, 1143, 1144, 1145, 1146, 1147, 1148, 1149, 1150
 1151, 1152, 1153, 1154, 1155, 1156, 1157, 1158, 1159, 1160, 1161, 1162, 1163, 1164, 1165, 1166
 1167, 1168, 1169, 1170, 1171, 1172, 1173, 1174, 1175, 1176, 1177, 1178, 1179, 1180, 1181, 1182
 1183, 1184, 1185, 1186, 1187, 1188, 1189, 1190, 1191, 1192, 1193, 1194, 1195, 1196, 1197, 1198
 1199, 1200, 1201, 1202, 1203, 1204, 1205, 1206, 1207, 1208, 1209, 1210, 1211, 1212, 1213, 1214
 1215, 1216, 1217, 1218, 1219, 1220, 1221, 1222, 1223, 1224, 1225, 1226, 1227, 1228, 1229, 1230
 1231, 1232, 1233, 1234, 1235, 1236, 1237, 1238, 1239, 1240, 1241, 1242, 1243, 1244, 1245, 1246
 1247, 1248, 1249, 1250, 1251, 1252, 1253, 1254, 1255, 1256, 7611, 7612, 7613, 7614, 7615, 7616
 7617, 7618, 7619, 7620, 7621, 7622, 7623, 7624, 7625, 7626, 7627, 7628, 7629, 7630, 7631, 7632
 7633, 7634, 7635, 7636, 7637, 7638, 7639, 7640, 7641, 7642, 7643, 7644, 7645, 7646, 7647, 7648
 7649, 7650, 7651, 7652, 7653, 7654, 7655, 7656, 7657, 7658, 7659, 7660, 7661, 7662, 7663, 7664
 7665, 7666, 7667, 7668, 7669, 7670, 7671, 7672, 7673, 7674, 7675, 7676, 7677, 7678, 7679, 7680
 7681, 7682, 7683, 7684, 7685, 7686, 7687, 7688, 7689, 7690, 7691, 7692, 7693, 7694, 7695, 7696
 7697, 7698, 7699, 7700, 7701, 7702, 7703, 7704, 7705, 7706, 7707, 7708, 7709, 7710, 7711, 7712
** ... 46 like lines cut
*Elset, elset=Set-1, instance="Landing gear frame-1", generate
 12787,  13727,      1
*Elset, elset=_Surf-1_S4, internal, instance="Landing gear frame-1"
 7721, 7722, 7790, 7791, 8134, 8135, 8203, 8204, 8547, 8548, 8616, 8617, 8960, 8961, 9029, 9030
 9373, 9374, 9442, 9443, 9786, 9787, 9855, 9856
*Elset, elset=_Surf-1_S6, internal, instance="Landing gear frame-1"
  7723,  7724,  7770,  7777,  7779,  7783,  8136,  8137,  8183,  8190,  8192,  8196,  8549,  8550,  8596,  8603
  8605,  8609,  8962,  8963,  9009,  9016,  9018,  9022,  9375,  9376,  9422,  9429,  9431,  9435,  9788,  9789
  9835,  9842,  9844,  9848, 10336, 10774, 11212, 11650, 12088, 12526
*Elset, elset=_Surf-1_S3, internal, instance="Landing gear frame-1"
 10204, 10260, 10262, 10642, 10698, 10700, 11080, 11136, 11138, 11518, 11574, 11576, 11956, 12012, 12014, 12394
 12450, 12452
*Elset, elset=_Surf-1_S5, internal, instance="Landing gear frame-1"
 10205, 10265, 10326, 10339, 10340, 10342, 10643, 10703, 10764, 10777, 10778, 10780, 11081, 11141, 11202, 11215
 11216, 11218, 11519, 11579, 11640, 11653, 11654, 11656, 11957, 12017, 12078, 12091, 12092, 12094, 12395, 12455
 12516, 12529, 12530, 12532
*Surface, type=ELEMENT, name=Surf-1
_Surf-1_S4, S4
_Surf-1_S6, S6
_Surf-1_S3, S3
_Surf-1_S5, S5
*End Assembly
** 
** MATERIALS
** 
*Material, name=Aluminum
*Density
 2.7e-09,
*Elastic
70000., 0.33
** 
** BOUNDARY CONDITIONS
** 
** Name: Fixed Type: Symmetry/Antisymmetry/Encastre
*Boundary
Set-1, ENCASTRE
** ----------------------------------------------------------------
** 
** STEP: PressureLoad
** 
*Step, name=PressureLoad, nlgeom=YES
*Static
1., 1., 1e-05, 1.
** 
** LOADS
** 
** Name: Load-1   Type: Pressure
*Dsload
Surf-1, P, 4.42415
** 
** OUTPUT REQUESTS
** 
*Restart, write, frequency=0
** 
** FIELD OUTPUT: F-Output-1
** 
*Output, field, variable=PRESELECT
** 
** HISTORY OUTPUT: H-Output-1
** 
*Output, history, variable=PRESELECT
*End Step
