1

   Abaqus 2025                                  Date 04-Mar-2026   Time 15:13:56
   For use by UNIVERSITY OF SOUTH CAROLINA under license from Dassault Systemes or its subsidiary.

                                                                                 
                                                                                 
 STEP    1     INCREMENT     1     STEP TIME    0.00    


                        S T E P       1     C A L C U L A T I O N   O F   E I G E N V A L U E S

                                            F O R   B U C K L I N G   P R E D I C T I O N



                                                                                          

     THE SUBSPACE ITERATION METHOD IS USED FOR THIS ANALYSIS
     NUMBER OF EIGENVALUES                      5
     MAXIMUM NUMBER OF ITERATIONS                    300
     NUMBER OF VECTORS IN ITERATION                   10
     THE BUCKLING MODE CONSTRAINTS 
      ARE DEFINED AS LOAD CASE 2
                              ONLY INITIAL STRESS EFFECTS ARE INCLUDED IN THE
                              STIFFNESS MATRIX

     THIS IS A LINEAR PERTURBATION STEP.
     ALL LOADS ARE DEFINED AS CHANGE IN LOAD TO THE REFERENCE STATE

     EXTRAPOLATION WILL NOT BE USED

     CHARACTERISTIC ELEMENT LENGTH     0.959    

     DETAILS REGARDING ACTUAL SOLUTION WAVEFRONT REQUESTED

     DETAILED OUTPUT OF DIAGNOSTICS TO DATABASE REQUESTED

     PRINT OF INCREMENT NUMBER, TIME, ETC., TO THE MESSAGE FILE EVERY     1  INCREMENTS
 
	SYMMETRIC HYBRID DIRECT SPARSE SOLVER RUNNING ON
 	1 HOST x 1 MPI RANK PER HOST x 1 THREAD PER RANK
        NUMBER OF EQUATIONS:  71316
        NUMBER OF RHS:        1
        NUMBER OF FLOPS:      8.493e+09
        SOLVER ELAPSED TIME:  1.1s
 
     ITERATION 1
      1       -1.059263e+03    
      2       -2.211787e+03    
      3       -3.501418e+03    
      4       -4.300325e+03    
      5       -6.643656e+03    
      6       7.992696e+03     
      7       -8.289032e+03    
      8       1.100028e+04     
      9       6.729371e+04     
      10      -1.618726e+05    
 
     NUMBER OF EIGENVALUES CONVERGED UPTO THIS ITERATION = 0
 
     ITERATION 2
      1       -3.399338e+01    
      2       -4.744963e+01    
      3       1.867610e+02     
      4       -3.644857e+02    
      5       1.143427e+03     
      6       -1.421883e+03    
      7       -1.861606e+03    
      8       2.182162e+03     
      9       8.803342e+03     
      10      4.032359e+05     
 
     NUMBER OF EIGENVALUES CONVERGED UPTO THIS ITERATION = 0
 
     ITERATION 3
      1       -2.492156e+01    
      2       -2.708463e+01    
      3       4.214981e+01     
      4       -7.618559e+01    
      5       8.202066e+01     
      6       -2.657334e+02    
      7       4.557852e+02     
      8       7.452746e+02     
      9       -7.575030e+02    
      10      1.362491e+05     
 
     NUMBER OF EIGENVALUES CONVERGED UPTO THIS ITERATION = 0
 
     ITERATION 4
      1       -2.467117e+01    
      2       -2.484712e+01    
      3       3.721393e+01     
      4       3.958448e+01     
      5       -5.685702e+01    
      6       -8.019303e+01    
      7       2.156090e+02     
      8       2.467868e+02     
      9       -3.692425e+02    
      10      5.499874e+03     
 
     NUMBER OF EIGENVALUES CONVERGED UPTO THIS ITERATION = 0
 
     ITERATION 5
      1       -2.464190e+01    
      2       -2.476321e+01    
      3       3.671750e+01     
      4       3.715036e+01     
      5       -5.423026e+01    
      6       -5.955268e+01    
      7       1.440463e+02     
      8       1.584854e+02     
      9       -2.602147e+02    
      10      1.984742e+04     
 
     NUMBER OF EIGENVALUES CONVERGED UPTO THIS ITERATION = 0
 
     ITERATION 6
      1       -2.464000e+01    
      2       -2.475975e+01    
      3       3.660169e+01     
      4       3.697179e+01     
      5       -5.362516e+01    
      6       -5.567711e+01    
      7       1.097732e+02     
      8       1.348716e+02     
      9       -2.182722e+02    
      10      -2.624854e+03    
 
     NUMBER OF EIGENVALUES CONVERGED UPTO THIS ITERATION = 0
 
     ITERATION 7
      1       -2.463989e+01    
      2       -2.475954e+01    
      3       3.658212e+01     
      4       3.695108e+01     
      5       -5.344630e+01    
      6       -5.462993e+01    
      7       9.458537e+01     
      8       1.203224e+02     
      9       -1.914798e+02    
      10      -1.122975e+03    
 
     NUMBER OF EIGENVALUES CONVERGED UPTO THIS ITERATION = 0
 
     ITERATION 8
      1       -2.463988e+01    
      2       -2.475953e+01    
      3       3.657882e+01     
      4       3.694796e+01     
      5       -5.338787e+01    
      6       -5.429287e+01    
      7       8.675185e+01     
      8       1.096482e+02     
      9       -1.679179e+02    
      10      -7.460154e+02    
 
     NUMBER OF EIGENVALUES CONVERGED UPTO THIS ITERATION = 2
 
     ITERATION 9
      1       -2.463988e+01    
      2       -2.475953e+01    
      3       3.657823e+01     
      4       3.694744e+01     
      5       -5.336799e+01    
      6       -5.417545e+01    
      7       8.236064e+01     
      8       1.014486e+02     
      9       -1.468425e+02    
      10      -5.877807e+02    
 
     NUMBER OF EIGENVALUES CONVERGED UPTO THIS ITERATION = 2
 
     ITERATION 10
      1       -2.463988e+01    
      2       -2.475953e+01    
      3       3.657812e+01     
      4       3.694734e+01     
      5       -5.336108e+01    
      6       -5.413297e+01    
      7       7.977094e+01     
      8       9.513520e+01     
      9       -1.294357e+02    
      10      -4.980729e+02    
 
     NUMBER OF EIGENVALUES CONVERGED UPTO THIS ITERATION = 2
 
     ITERATION 11
      1       -2.463988e+01    
      2       -2.475953e+01    
      3       3.657810e+01     
      4       3.694733e+01     
      5       -5.335865e+01    
      6       -5.411729e+01    
      7       7.818842e+01     
      8       9.031926e+01     
      9       -1.159336e+02    
      10      -4.339051e+02    
 
     NUMBER OF EIGENVALUES CONVERGED UPTO THIS ITERATION = 4
 
     ITERATION 12
      1       -2.463988e+01    
      2       -2.475953e+01    
      3       3.657810e+01     
      4       3.694732e+01     
      5       -5.335779e+01    
      6       -5.411144e+01    
      7       7.719366e+01     
      8       8.668497e+01     
      9       -1.058023e+02    
      10      -3.810954e+02    
 
     NUMBER OF EIGENVALUES CONVERGED UPTO THIS ITERATION = 4
 
     ITERATION 13
      1       -2.463988e+01    
      2       -2.475953e+01    
      3       3.657810e+01     
      4       3.694732e+01     
      5       -5.335748e+01    
      6       -5.410923e+01    
      7       7.655299e+01     
      8       8.396626e+01     
      9       -9.831301e+01    
      10      -3.351781e+02    
 
     NUMBER OF EIGENVALUES CONVERGED UPTO THIS ITERATION = 4
 
     ITERATION 14
      1       -2.463988e+01    
      2       -2.475953e+01    
      3       3.657810e+01     
      4       3.694732e+01     
      5       -5.335737e+01    
      6       -5.410840e+01    
      7       7.613148e+01     
      8       8.194289e+01     
      9       -9.281007e+01    
      10      -2.949506e+02    
 
     NUMBER OF EIGENVALUES CONVERGED UPTO THIS ITERATION = 4
 
     ITERATION 15
      1       -2.463988e+01    
      2       -2.475953e+01    
      3       3.657810e+01     
      4       3.694732e+01     
      5       -5.335733e+01    
      6       -5.410808e+01    
      7       7.584909e+01     
      8       8.043793e+01     
      9       -8.877486e+01    
      10      -2.600651e+02    
 
     NUMBER OF EIGENVALUES CONVERGED UPTO THIS ITERATION = 5


          THE ANALYSIS HAS BEEN COMPLETED



     ANALYSIS SUMMARY:
     TOTAL OF          1  INCREMENTS
                       0  CUTBACKS IN AUTOMATIC INCREMENTATION
                       1  ITERATIONS INCLUDING CONTACT ITERATIONS IF PRESENT
                       1  PASSES THROUGH THE EQUATION SOLVER OF WHICH 
                       1  INVOLVE MATRIX DECOMPOSITION, INCLUDING
                       0  DECOMPOSITION(S) OF THE MASS MATRIX
                       1  REORDERING OF EQUATIONS TO MINIMIZE WAVEFRONT
                       0  ADDITIONAL RESIDUAL EVALUATIONS FOR LINE SEARCHES
                       0  ADDITIONAL OPERATOR EVALUATIONS FOR LINE SEARCHES
                       0  WARNING MESSAGES DURING USER INPUT PROCESSING
                       0  WARNING MESSAGES DURING ANALYSIS
                       0  ANALYSIS WARNINGS ARE NUMERICAL PROBLEM MESSAGES
                       0  ANALYSIS WARNINGS ARE NEGATIVE EIGENVALUE MESSAGES
                       0  ERROR MESSAGES



     JOB TIME SUMMARY
       USER TIME (SEC)      =      14.    
       SYSTEM TIME (SEC)    =      1.3    
       TOTAL CPU TIME (SEC) =      15.    
       WALLCLOCK TIME (SEC) =           16
       MEMORY PEAK (GB)     =            1
